ProjectFiles/Sumitomo/DSSfiles/LinesC591.dss
! Script for LinesC591.dss

! LINE DEFINITIONS
New Line.591_10040_BR Bus1=BP_591_19156.2 Bus2=DJ_573907_1816.2 phases=1 Linecode=lc1 Length=0.729816 units=ft !overhead line
New Line.591_10041_BR Bus1=DJ_573907_1816.2 Bus2=BP_591_15969.2 phases=1 Linecode=lc1 Length=0.729954 units=ft !overhead line
New Line.591_10042_BR Bus1=BP_591_19155.2 Bus2=FU_591_1770.2 phases=1 Linecode=lc1 Length=0.956337 units=ft !overhead line
New Line.591_10043_BR Bus1=BP_591_22834.3 Bus2=DJ_573921_1816.3 phases=1 Linecode=lc1 Length=1.680066 units=ft !overhead line
New Line.591_10044_BR Bus1=DJ_573920_1816.3 Bus2=DJ_573919_1816.3 phases=1 Linecode=lc1 Length=0.424487 units=ft !overhead line
New Line.591_10045_BR Bus1=DJ_573979_1816.1.2.3 Bus2=DJ_573978_1816.1.2.3 phases=3 Linecode=lc2 Length=0.450561 units=ft !overhead line
New Line.591_10343_UG Bus1=BP_591_18904.3 Bus2=BP_591_29125.3 phases=1 Linecode=lc3 Length=476.000000 units=ft !overhead line
New Line.591_1038897_UG Bus1=BP_591_1557555.1 Bus2=BP_591_1557553.1 phases=1 Linecode=lc4 Length=72.000000 units=ft !overhead line
New Line.591_1040849_OH Bus1=DJ_620724_1816.1.2.3 Bus2=DJ_3975441_1816.1.2.3 phases=3 Linecode=lc5 Length=242.000000 units=ft !overhead line
New Line.591_1040850_OH Bus1=DJ_3975441_1816.1.2.3 Bus2=DJ_3600578_1816.1.2.3 phases=3 Linecode=lc6 Length=343.000000 units=ft !overhead line
New Line.591_1040851_OH Bus1=DJ_3600578_1816.1.2.3 Bus2=DJ_3600579_1816.1.2.3 phases=3 Linecode=lc6 Length=206.000000 units=ft !overhead line
New Line.591_1040852_OH Bus1=DJ_3600579_1816.1.2.3 Bus2=DJ_3600580_1816.1.2.3 phases=3 Linecode=lc6 Length=416.000000 units=ft !overhead line
New Line.591_1040853_OH Bus1=DJ_3600580_1816.1.2.3 Bus2=DJ_3600581_1816.1.2.3 phases=3 Linecode=lc6 Length=298.000000 units=ft !overhead line
New Line.591_1040854_OH Bus1=DJ_3600581_1816.1.2.3 Bus2=DJ_3600582_1816.1.2.3 phases=3 Linecode=lc6 Length=88.000000 units=ft !overhead line
New Line.591_1040855_OH Bus1=DJ_3600582_1816.1.2.3 Bus2=DJ_3600583_1816.1.2.3 phases=3 Linecode=lc6 Length=115.000000 units=ft !overhead line
New Line.591_1040856_OH Bus1=DJ_3600583_1816.1.2.3 Bus2=DJ_3600584_1816.1.2.3 phases=3 Linecode=lc6 Length=358.000000 units=ft !overhead line
New Line.591_1040857_OH Bus1=DJ_3600584_1816.1.2.3 Bus2=DJ_3600585_1816.1.2.3 phases=3 Linecode=lc6 Length=255.000000 units=ft !overhead line
New Line.591_1040858_OH Bus1=DJ_3600585_1816.1.2.3 Bus2=DJ_3600586_1816.1.2.3 phases=3 Linecode=lc6 Length=231.000000 units=ft !overhead line
New Line.591_1040859_OH Bus1=DJ_3600586_1816.1.2.3 Bus2=DJ_3600587_1816.1.2.3 phases=3 Linecode=lc6 Length=197.000000 units=ft !overhead line
New Line.591_1040860_OH Bus1=DJ_3600587_1816.1.2.3 Bus2=SW_591_447489.1.2.3 phases=3 Linecode=lc6 Length=298.000000 units=ft !overhead line
New Line.591_1043937_BR Bus1=BP_591_1557554.1 Bus2=DJ_2304721_1816.1 phases=1 Linecode=lc1 Length=0.384610 units=ft !overhead line
New Line.591_1043938_BR Bus1=DJ_2304721_1816.1 Bus2=XF_591_758929.1 phases=1 Linecode=lc1 Length=0.701350 units=ft !overhead line
New Line.591_1043939_BR Bus1=BP_591_1557553.1 Bus2=DJ_2304721_1816.1 phases=1 Linecode=lc1 Length=0.386727 units=ft !overhead line
New Line.591_10563_UG Bus1=BP_591_16911.1 Bus2=BP_591_26463.1 phases=1 Linecode=lc7 Length=44.000000 units=ft !overhead line
New Line.591_10719_UG Bus1=BP_591_30883.3 Bus2=BP_591_30881.3 phases=1 Linecode=lc7 Length=206.000000 units=ft !overhead line
New Line.591_10720_UG Bus1=BP_591_30882.3 Bus2=BP_591_31060.3 phases=1 Linecode=lc7 Length=267.000000 units=ft !overhead line
New Line.591_10721_UG Bus1=BP_591_22016.1 Bus2=BP_591_21046.1 phases=1 Linecode=lc7 Length=180.000000 units=ft !overhead line
New Line.591_10722_UG Bus1=BP_591_26389.3 Bus2=BP_591_31062.3 phases=1 Linecode=lc7 Length=436.000000 units=ft !overhead line
New Line.591_10723_UG Bus1=BP_591_25262.2 Bus2=BP_591_17650.2 phases=1 Linecode=lc7 Length=354.000000 units=ft !overhead line
New Line.591_10724_UG Bus1=BP_591_25069.2 Bus2=BP_591_25266.2 phases=1 Linecode=lc7 Length=352.000000 units=ft !overhead line
New Line.591_10725_UG Bus1=BP_591_28461.2 Bus2=BP_591_25263.2 phases=1 Linecode=lc7 Length=140.000000 units=ft !overhead line
New Line.591_10733_BR Bus1=DJ_2820276_1816.2 Bus2=BP_591_31570.2 phases=1 Linecode=lc1 Length=0.446967 units=ft !overhead line
New Line.591_10734_BR Bus1=XF_591_13072.2 Bus2=DJ_2820276_1816.2 phases=1 Linecode=lc1 Length=0.847973 units=ft !overhead line
New Line.591_10737_BR Bus1=BP_591_30701.1.2.3 Bus2=DJ_579118_1816.1.2.3 phases=3 Linecode=lc2 Length=0.415001 units=ft !overhead line
New Line.591_10738_BR Bus1=DJ_579118_1816.1.2.3 Bus2=BP_591_30702.1.2.3 phases=3 Linecode=lc2 Length=0.414867 units=ft !overhead line
New Line.591_10816_BR Bus1=DJ_568957_1816.3 Bus2=BP_591_21738.3 phases=1 Linecode=lc1 Length=0.449922 units=ft !overhead line
New Line.591_10827_UG Bus1=CP_591_7905.1.2.3 Bus2=CP_591_8791.1.2.3 phases=3 Linecode=lc8 Length=435.000000 units=ft !overhead line
New Line.591_10828_UG Bus1=FU_591_1895.1 Bus2=BP_591_16525.1 phases=1 Linecode=lc4 Length=121.000000 units=ft !overhead line
New Line.591_10829_UG Bus1=FU_591_2717.1.2.3 Bus2=BP_591_30865.1.2.3 phases=3 Linecode=lc9 Length=184.000000 units=ft !overhead line
New Line.591_10832_UG Bus1=BP_591_26217.1.2.3 Bus2=CP_591_9111.1.2.3 phases=3 Linecode=lc8 Length=525.000000 units=ft !overhead line
New Line.591_10833_UG Bus1=BP_591_26489.3 Bus2=BP_591_16457.3 phases=1 Linecode=lc10 Length=220.000000 units=ft !overhead line
New Line.591_10835_UG Bus1=BP_591_29164.1 Bus2=BP_591_29166.1 phases=1 Linecode=lc7 Length=280.000000 units=ft !overhead line
New Line.591_1083617_BR Bus1=DJ_569002_1816.3 Bus2=BP_591_1613554.3 phases=1 Linecode=lc1 Length=0.449879 units=ft !overhead line
New Line.591_1083943_BR Bus1=BP_591_1613878.3 Bus2=DJ_2389126_1816.3 phases=1 Linecode=lc1 Length=0.384440 units=ft !overhead line
New Line.591_1083944_BR Bus1=DJ_2389126_1816.3 Bus2=XF_591_796035.3 phases=1 Linecode=lc1 Length=0.701282 units=ft !overhead line
New Line.591_1083945_BR Bus1=BP_591_1613877.3 Bus2=DJ_2389126_1816.3 phases=1 Linecode=lc1 Length=0.386728 units=ft !overhead line
New Line.591_1083946_BR Bus1=DJ_569004_1816.3 Bus2=BP_591_1613882.3 phases=1 Linecode=lc1 Length=0.433389 units=ft !overhead line
New Line.591_1083947_BR Bus1=DJ_2469207_1816.3 Bus2=BP_591_1613884.3 phases=1 Linecode=lc1 Length=0.456062 units=ft !overhead line
New Line.591_1083948_BR Bus1=XF_591_796036.3 Bus2=DJ_2469207_1816.3 phases=1 Linecode=lc1 Length=0.847371 units=ft !overhead line
New Line.591_1083949_BR Bus1=DJ_2469207_1816.3 Bus2=BP_591_1613883.3 phases=1 Linecode=lc1 Length=0.449734 units=ft !overhead line
New Line.591_1083951_BR Bus1=DJ_573965_1816.1 Bus2=BP_591_1613906.1 phases=1 Linecode=lc1 Length=0.437759 units=ft !overhead line
New Line.591_1083952_BR Bus1=DJ_573971_1816.1 Bus2=BP_591_1613907.1 phases=1 Linecode=lc1 Length=0.415395 units=ft !overhead line
New Line.591_1086497_BR Bus1=DJ_3361144_1816.1 Bus2=BP_591_1616754.1 phases=1 Linecode=lc1 Length=0.447516 units=ft !overhead line
New Line.591_1086498_BR Bus1=XF_591_798593.1 Bus2=DJ_3361144_1816.1 phases=1 Linecode=lc1 Length=0.847849 units=ft !overhead line
New Line.591_1086500_BR Bus1=DJ_568995_1816.1 Bus2=BP_591_1616755.1 phases=1 Linecode=lc1 Length=0.487825 units=ft !overhead line
New Line.591_1086501_BR Bus1=DJ_568995_1816.1 Bus2=BP_591_1616756.1 phases=1 Linecode=lc1 Length=0.460329 units=ft !overhead line
New Line.591_1086502_BR Bus1=DJ_2469253_1816.1 Bus2=BP_591_1616757.1 phases=1 Linecode=lc1 Length=0.445881 units=ft !overhead line
New Line.591_1086503_BR Bus1=DJ_2469253_1816.1 Bus2=BP_591_1616758.1 phases=1 Linecode=lc1 Length=0.440066 units=ft !overhead line
New Line.591_1086545_BR Bus1=DJ_568988_1816.1 Bus2=BP_591_1616772.1 phases=1 Linecode=lc1 Length=0.443773 units=ft !overhead line
New Line.591_1086546_BR Bus1=DJ_568988_1816.1 Bus2=BP_591_1616773.1 phases=1 Linecode=lc1 Length=0.435291 units=ft !overhead line
New Line.591_1086547_BR Bus1=DJ_568992_1816.1 Bus2=BP_591_1616774.1 phases=1 Linecode=lc1 Length=0.448390 units=ft !overhead line
New Line.591_1086548_BR Bus1=DJ_568987_1816.2 Bus2=BP_591_1616784.2 phases=1 Linecode=lc1 Length=0.467860 units=ft !overhead line
New Line.591_10866_UG Bus1=BP_591_26390.3 Bus2=BP_591_31059.3 phases=1 Linecode=lc7 Length=240.000000 units=ft !overhead line
New Line.591_10867_UG Bus1=BP_591_26393.3 Bus2=BP_591_26395.3 phases=1 Linecode=lc10 Length=526.000000 units=ft !overhead line
New Line.591_10868_UG Bus1=BP_591_25264.3 Bus2=BP_591_28463.3 phases=1 Linecode=lc10 Length=584.000000 units=ft !overhead line
New Line.591_10869_UG Bus1=BP_591_28460.3 Bus2=BP_591_18635.3 phases=1 Linecode=lc7 Length=446.000000 units=ft !overhead line
New Line.591_1087553_UG Bus1=BP_591_1613554.3 Bus2=BP_591_1613553.3 phases=1 Linecode=lc11 Length=160.000000 units=ft !overhead line
New Line.591_10877_UG Bus1=BP_591_18953.1.2.3 Bus2=BP_591_18684.1.2.3 phases=3 Linecode=lc9 Length=45.000000 units=ft !overhead line
New Line.591_1087857_UG Bus1=BP_591_1613555.3 Bus2=BP_591_1613878.3 phases=1 Linecode=lc11 Length=290.000000 units=ft !overhead line
New Line.591_1087858_UG Bus1=BP_591_1613877.3 Bus2=BP_591_1613880.3 phases=1 Linecode=lc11 Length=240.000000 units=ft !overhead line
New Line.591_1087859_UG Bus1=BP_591_1613882.3 Bus2=BP_591_1613879.3 phases=1 Linecode=lc11 Length=160.000000 units=ft !overhead line
New Line.591_1087860_UG Bus1=BP_591_1613881.3 Bus2=BP_591_1613884.3 phases=1 Linecode=lc11 Length=145.000000 units=ft !overhead line
New Line.591_1087862_UG Bus1=BP_591_1613888.1 Bus2=BP_591_1613906.1 phases=1 Linecode=lc11 Length=60.000000 units=ft !overhead line
New Line.591_1087863_UG Bus1=BP_591_1613887.1 Bus2=BP_591_1613907.1 phases=1 Linecode=lc11 Length=150.000000 units=ft !overhead line
New Line.591_1087864_UG Bus1=BP_591_1613905.1 Bus2=BP_591_1613908.1 phases=1 Linecode=lc11 Length=200.000000 units=ft !overhead line
New Line.591_10878_UG Bus1=BP_591_16536.1 Bus2=BP_591_16141.1 phases=1 Linecode=lc11 Length=10.000000 units=ft !overhead line
New Line.591_10880_UG Bus1=BP_591_18545.1 Bus2=CP_591_7904.1 phases=1 Linecode=lc11 Length=392.000000 units=ft !overhead line
New Line.591_1088417_BR Bus1=DJ_568986_1816.2 Bus2=BP_591_1619329.2 phases=1 Linecode=lc1 Length=0.383572 units=ft !overhead line
New Line.591_1088418_BR Bus1=DJ_568989_1816.2 Bus2=BP_591_1619331.2 phases=1 Linecode=lc1 Length=0.312670 units=ft !overhead line
New Line.591_1088419_BR Bus1=DJ_568989_1816.2 Bus2=BP_591_1619330.2 phases=1 Linecode=lc1 Length=0.316695 units=ft !overhead line
New Line.591_1088420_BR Bus1=DJ_568997_1816.2 Bus2=BP_591_1619332.2 phases=1 Linecode=lc1 Length=0.439304 units=ft !overhead line
New Line.591_1088737_BR Bus1=DJ_568994_1816.2 Bus2=BP_591_1619953.2 phases=1 Linecode=lc1 Length=0.443902 units=ft !overhead line
New Line.591_1090417_UG Bus1=BP_591_1672145.1 Bus2=BP_591_1613909.1 phases=1 Linecode=lc11 Length=130.000000 units=ft !overhead line
New Line.591_1090418_UG Bus1=BP_591_1616755.1 Bus2=BP_591_1613910.1 phases=1 Linecode=lc11 Length=20.000000 units=ft !overhead line
New Line.591_1090419_UG Bus1=BP_591_1616756.1 Bus2=BP_591_1616757.1 phases=1 Linecode=lc11 Length=200.000000 units=ft !overhead line
New Line.591_1090437_UG Bus1=BP_591_1616773.1 Bus2=BP_591_1616774.1 phases=1 Linecode=lc11 Length=120.000000 units=ft !overhead line
New Line.591_1090438_UG Bus1=BP_591_1616758.1 Bus2=BP_591_1616772.1 phases=1 Linecode=lc11 Length=380.000000 units=ft !overhead line
New Line.591_1090439_UG Bus1=BP_591_1616775.2 Bus2=BP_591_1616777.2 phases=1 Linecode=lc11 Length=335.000000 units=ft !overhead line
New Line.591_1090440_UG Bus1=BP_591_1616779.2 Bus2=BP_591_1616783.2 phases=1 Linecode=lc11 Length=195.000000 units=ft !overhead line
New Line.591_1090441_UG Bus1=BP_591_1616778.2 Bus2=BP_591_1616784.2 phases=1 Linecode=lc11 Length=200.000000 units=ft !overhead line
New Line.591_1091713_UG Bus1=BP_591_1619331.2 Bus2=BP_591_1619329.2 phases=1 Linecode=lc11 Length=220.000000 units=ft !overhead line
New Line.591_1091714_UG Bus1=BP_591_1619332.2 Bus2=BP_591_1616781.2 phases=1 Linecode=lc11 Length=230.000000 units=ft !overhead line
New Line.591_1092018_UG Bus1=BP_591_1616782.2 Bus2=BP_591_1619330.2 phases=1 Linecode=lc11 Length=20.000000 units=ft !overhead line
New Line.591_1092019_UG Bus1=BP_591_1619953.2 Bus2=BP_591_1616780.2 phases=1 Linecode=lc11 Length=118.000000 units=ft !overhead line
New Line.591_1092020_UG Bus1=BP_591_1619954.3 Bus2=BP_591_1619955.3 phases=1 Linecode=lc11 Length=390.000000 units=ft !overhead line
New Line.591_1092021_UG Bus1=BP_591_1619956.2 Bus2=BP_591_1616776.2 phases=1 Linecode=lc11 Length=495.000000 units=ft !overhead line
New Line.591_1092022_UG Bus1=BP_591_1619957.1 Bus2=BP_591_1613886.1 phases=1 Linecode=lc11 Length=125.000000 units=ft !overhead line
New Line.591_10959_BR Bus1=XF_591_9946.2 Bus2=DJ_579109_1816.2 phases=1 Linecode=lc1 Length=0.848045 units=ft !overhead line
New Line.591_10961_BR Bus1=DJ_2820306_1816.2 Bus2=BP_591_31571.2 phases=1 Linecode=lc1 Length=0.447509 units=ft !overhead line
New Line.591_10962_BR Bus1=DJ_584899_1816.3 Bus2=BP_591_17486.3 phases=1 Linecode=lc1 Length=0.449570 units=ft !overhead line
New Line.591_10963_BR Bus1=DJ_584899_1816.3 Bus2=BP_591_17487.3 phases=1 Linecode=lc1 Length=0.447618 units=ft !overhead line
New Line.591_10979_UG Bus1=BP_591_18683.1.2.3 Bus2=BP_591_18678.1.2.3 phases=3 Linecode=lc12 Length=400.000000 units=ft !overhead line
New Line.591_11049_BR Bus1=XF_591_16422.1 Bus2=DJ_590237_1816.1 phases=1 Linecode=lc1 Length=0.847488 units=ft !overhead line
New Line.591_11050_BR Bus1=DJ_590228_1816.1 Bus2=BP_591_18692.1 phases=1 Linecode=lc1 Length=0.447181 units=ft !overhead line
New Line.591_11052_UG Bus1=BP_591_28884.1.2.3 Bus2=BP_591_29708.1.2.3 phases=3 Linecode=lc9 Length=706.000000 units=ft !overhead line
New Line.591_11088_BR Bus1=DJ_590174_1816.2 Bus2=BP_591_16454.2 phases=1 Linecode=lc1 Length=0.446817 units=ft !overhead line
New Line.591_11089_BR Bus1=DJ_590176_1816.2 Bus2=BP_591_25841.2 phases=1 Linecode=lc1 Length=0.449212 units=ft !overhead line
New Line.591_11090_BR Bus1=DJ_590176_1816.2 Bus2=BP_591_25842.2 phases=1 Linecode=lc1 Length=0.447267 units=ft !overhead line
New Line.591_11091_BR Bus1=DJ_590237_1816.1 Bus2=BP_591_25843.1 phases=1 Linecode=lc1 Length=0.449666 units=ft !overhead line
New Line.591_11092_BR Bus1=XF_591_14368.1 Bus2=DJ_590228_1816.1 phases=1 Linecode=lc1 Length=0.847513 units=ft !overhead line
New Line.591_11093_BR Bus1=DJ_590209_1816.1 Bus2=BP_591_18634.1 phases=1 Linecode=lc1 Length=0.446846 units=ft !overhead line
New Line.591_11094_BR Bus1=XF_591_14354.1 Bus2=DJ_590209_1816.1 phases=1 Linecode=lc1 Length=0.847288 units=ft !overhead line
New Line.591_11133_BR Bus1=DJ_595210_1816.2 Bus2=BP_591_17726.2 phases=1 Linecode=lc1 Length=0.448830 units=ft !overhead line
New Line.591_11145_UG Bus1=BP_591_21164.1 Bus2=BP_591_21476.1 phases=1 Linecode=lc7 Length=380.000000 units=ft !overhead line
New Line.591_11159_UG Bus1=BP_591_26492.3 Bus2=BP_591_29519.3 phases=1 Linecode=lc4 Length=246.000000 units=ft !overhead line
New Line.591_11210_UG Bus1=BP_591_15994.3 Bus2=BP_591_31569.3 phases=1 Linecode=lc7 Length=160.000000 units=ft !overhead line
New Line.591_11218_UG Bus1=FU_591_1932.1 Bus2=BP_591_17488.1 phases=1 Linecode=lc7 Length=248.000000 units=ft !overhead line
New Line.591_11225_UG Bus1=BP_591_17484.3 Bus2=BP_591_17483.3 phases=1 Linecode=lc10 Length=248.000000 units=ft !overhead line
New Line.591_11226_BR Bus1=XF_591_14355.1 Bus2=DJ_590193_1816.1 phases=1 Linecode=lc1 Length=0.848041 units=ft !overhead line
New Line.591_11226_UG Bus1=BP_591_17485.3 Bus2=BP_591_17486.3 phases=1 Linecode=lc10 Length=530.000000 units=ft !overhead line
New Line.591_11227_BR Bus1=XF_591_15923.1 Bus2=DJ_595229_1816.1 phases=1 Linecode=lc1 Length=0.847253 units=ft !overhead line
New Line.591_11227_UG Bus1=BP_591_17487.3 Bus2=BP_591_15866.3 phases=1 Linecode=lc10 Length=220.000000 units=ft !overhead line
New Line.591_11228_UG Bus1=BP_591_15865.1.2.3 Bus2=BP_591_15864.1.2.3 phases=3 Linecode=lc9 Length=620.000000 units=ft !overhead line
New Line.591_1126817_BR Bus1=DJ_3361144_1816.1 Bus2=BP_591_1672145.1 phases=1 Linecode=lc1 Length=0.449585 units=ft !overhead line
New Line.591_1136289_OH Bus1=DJ_3975448_1816.1.2.3 Bus2=DJ_3947505_1816.1.2.3 phases=3 Linecode=lc13 Length=132.000000 units=ft !overhead line
New Line.591_11379_UG Bus1=BP_591_15861.2 Bus2=CP_591_7136.2 phases=1 Linecode=lc4 Length=110.000000 units=ft !overhead line
New Line.591_11380_UG Bus1=BP_591_31571.2 Bus2=BP_591_29817.2 phases=1 Linecode=lc11 Length=228.000000 units=ft !overhead line
New Line.591_11381_UG Bus1=BP_591_30701.1.2.3 Bus2=CP_591_7135.1.2.3 phases=3 Linecode=lc9 Length=150.000000 units=ft !overhead line
New Line.591_11382_UG Bus1=BP_591_15989.1.2.3 Bus2=BP_591_15992.1.2.3 phases=3 Linecode=lc12 Length=566.000000 units=ft !overhead line
New Line.591_11480_BR Bus1=DJ_590280_1816.1.2.3 Bus2=BP_591_28662.1.2.3 phases=3 Linecode=lc2 Length=0.729561 units=ft !overhead line
New Line.591_11484_BR Bus1=XF_591_9935.2 Bus2=DJ_590278_1816.2 phases=1 Linecode=lc1 Length=0.847508 units=ft !overhead line
New Line.591_11507_UG Bus1=FU_591_2716.2 Bus2=BP_591_26939.2 phases=1 Linecode=lc14 Length=196.000000 units=ft !overhead line
New Line.591_11508_UG Bus1=BP_591_18677.1.2 Bus2=BP_591_16142.1.2 phases=2 Linecode=lc15 Length=196.000000 units=ft !overhead line
New Line.591_11510_UG Bus1=CP_591_7682.1.2.3 Bus2=CP_591_7686.1.2.3 phases=3 Linecode=lc8 Length=683.000000 units=ft !overhead line
New Line.591_1152657_OH Bus1=XF_591_12724.1.2.3 Bus2=DJ_3947508_1816.1.2.3 phases=3 Linecode=lc5 Length=247.000000 units=ft !overhead line
New Line.591_11546_BR Bus1=DJ_2662894_1816.3 Bus2=BP_591_15870.3 phases=1 Linecode=lc1 Length=0.450101 units=ft !overhead line
New Line.591_11547_BR Bus1=DJ_2662894_1816.3 Bus2=BP_591_23444.3 phases=1 Linecode=lc1 Length=0.446823 units=ft !overhead line
New Line.591_11548_BR Bus1=DJ_590132_1816.2 Bus2=BP_591_17742.2 phases=1 Linecode=lc1 Length=0.449827 units=ft !overhead line
New Line.591_11549_BR Bus1=DJ_2662896_1816.1 Bus2=BP_591_19681.1 phases=1 Linecode=lc1 Length=0.449129 units=ft !overhead line
New Line.591_11550_BR Bus1=DJ_2662896_1816.1 Bus2=BP_591_15871.1 phases=1 Linecode=lc1 Length=0.447546 units=ft !overhead line
New Line.591_11551_BR Bus1=DJ_2662915_1816.3 Bus2=BP_591_21045.3 phases=1 Linecode=lc1 Length=0.447390 units=ft !overhead line
New Line.591_11552_BR Bus1=DJ_2662898_1816.1 Bus2=BP_591_21046.1 phases=1 Linecode=lc1 Length=0.449568 units=ft !overhead line
New Line.591_11553_BR Bus1=DJ_2662898_1816.1 Bus2=BP_591_21047.1 phases=1 Linecode=lc1 Length=0.447223 units=ft !overhead line
New Line.591_11554_BR Bus1=XF_591_9488.1 Bus2=DJ_2662898_1816.1 phases=1 Linecode=lc1 Length=0.847635 units=ft !overhead line
New Line.591_11555_BR Bus1=DJ_595177_1816.3 Bus2=BP_591_28457.3 phases=1 Linecode=lc1 Length=0.447355 units=ft !overhead line
New Line.591_11556_BR Bus1=DJ_2662922_1816.3 Bus2=BP_591_30385.3 phases=1 Linecode=lc1 Length=0.449666 units=ft !overhead line
New Line.591_1163956_BR Bus1=BP_591_1724645.1 Bus2=DJ_2543187_1816.1 phases=1 Linecode=lc1 Length=0.332519 units=ft !overhead line
New Line.591_1163957_BR Bus1=DJ_2543187_1816.1 Bus2=XF_591_871553.1 phases=1 Linecode=lc1 Length=0.778412 units=ft !overhead line
New Line.591_1163958_BR Bus1=BP_591_1724644.1 Bus2=DJ_2543187_1816.1 phases=1 Linecode=lc1 Length=0.387105 units=ft !overhead line
New Line.591_1164913_BR Bus1=BP_591_1725604.1 Bus2=DJ_2544369_1816.1 phases=1 Linecode=lc1 Length=0.384467 units=ft !overhead line
New Line.591_1164914_BR Bus1=DJ_2544369_1816.1 Bus2=XF_591_873170.1 phases=1 Linecode=lc1 Length=0.701290 units=ft !overhead line
New Line.591_1164915_BR Bus1=BP_591_1725603.1 Bus2=DJ_2544369_1816.1 phases=1 Linecode=lc1 Length=0.396756 units=ft !overhead line
New Line.591_11652_BR Bus1=DJ_579199_1816.1 Bus2=BP_591_26938.1 phases=1 Linecode=lc1 Length=0.452774 units=ft !overhead line
New Line.591_11653_BR Bus1=XF_591_12273.1 Bus2=DJ_579199_1816.1 phases=1 Linecode=lc1 Length=0.864844 units=ft !overhead line
New Line.591_11675_BR Bus1=DJ_595187_1816.3 Bus2=BP_591_26395.3 phases=1 Linecode=lc1 Length=0.449566 units=ft !overhead line
New Line.591_11676_BR Bus1=DJ_595187_1816.3 Bus2=BP_591_28463.3 phases=1 Linecode=lc1 Length=0.447387 units=ft !overhead line
New Line.591_11677_BR Bus1=XF_591_10348.3 Bus2=DJ_595187_1816.3 phases=1 Linecode=lc1 Length=0.847630 units=ft !overhead line
New Line.591_1171035_BR Bus1=DJ_2557588_1816.1.2.3 Bus2=SW_591_290517.1.2.3 phases=3 Linecode=lc2 Length=1.141945 units=ft !overhead line
New Line.591_1171036_BR Bus1=SW_591_290518.1.2.3 Bus2=DJ_2557589_1816.1.2.3 phases=3 Linecode=lc2 Length=1.157490 units=ft !overhead line
New Line.591_1171037_BR Bus1=DJ_2557588_1816.1.2.3 Bus2=DJ_2557589_1816.1.2.3 phases=3 Linecode=lc2 Length=2.400271 units=ft !overhead line
New Line.591_1171038_BR Bus1=DJ_2557589_1816.1.2.3 Bus2=SW_591_290519.1.2.3 phases=3 Linecode=lc2 Length=1.116649 units=ft !overhead line
New Line.591_1171039_BR Bus1=FU_591_540275.1.2.3 Bus2=DJ_2557588_1816.1.2.3 phases=3 Linecode=lc2 Length=1.046337 units=ft !overhead line
New Line.591_1171040_BR Bus1=BP_591_1735509.3 Bus2=DJ_2557594_1816.3 phases=1 Linecode=lc1 Length=0.384572 units=ft !overhead line
New Line.591_1171041_BR Bus1=DJ_2557594_1816.3 Bus2=XF_591_879602.3 phases=1 Linecode=lc1 Length=0.865512 units=ft !overhead line
New Line.591_1171042_BR Bus1=BP_591_1735508.3 Bus2=DJ_2557594_1816.3 phases=1 Linecode=lc1 Length=0.386714 units=ft !overhead line
New Line.591_11712_BR Bus1=DJ_574012_1816.1 Bus2=BP_591_23289.1 phases=1 Linecode=lc1 Length=0.446707 units=ft !overhead line
New Line.591_11713_BR Bus1=XF_591_9332.1 Bus2=DJ_574012_1816.1 phases=1 Linecode=lc1 Length=0.847052 units=ft !overhead line
New Line.591_11714_BR Bus1=DJ_579222_1816.1 Bus2=BP_591_18809.1 phases=1 Linecode=lc1 Length=0.450082 units=ft !overhead line
New Line.591_11715_BR Bus1=XF_591_15370.3 Bus2=DJ_579246_1816.3 phases=1 Linecode=lc1 Length=0.847370 units=ft !overhead line
New Line.591_11716_BR Bus1=XF_591_13837.3 Bus2=DJ_579239_1816.3 phases=1 Linecode=lc1 Length=0.847939 units=ft !overhead line
New Line.591_11717_BR Bus1=DJ_573959_1816.1 Bus2=BP_591_16273.1 phases=1 Linecode=lc1 Length=0.449830 units=ft !overhead line
New Line.591_11718_BR Bus1=XF_591_13510.3 Bus2=DJ_568962_1816.3 phases=1 Linecode=lc1 Length=0.847801 units=ft !overhead line
New Line.591_11734_BR Bus1=BP_591_23862.1.2.3 Bus2=DJ_574002_1816.1.2.3 phases=3 Linecode=lc2 Length=0.729914 units=ft !overhead line
New Line.591_11735_BR Bus1=DJ_574001_1816.1.2.3 Bus2=BP_591_25138.1.2.3 phases=3 Linecode=lc2 Length=0.729689 units=ft !overhead line
New Line.591_11736_BR Bus1=DJ_573947_1816.1 Bus2=BP_591_25507.1 phases=1 Linecode=lc1 Length=0.730115 units=ft !overhead line
New Line.591_11737_BR Bus1=DJ_573947_1816.1 Bus2=FU_591_2123.1 phases=1 Linecode=lc1 Length=0.962052 units=ft !overhead line
New Line.591_11738_BR Bus1=BP_591_22833.1.2.3 Bus2=DJ_573919_1816.1.2.3 phases=3 Linecode=lc2 Length=1.679449 units=ft !overhead line
New Line.591_11739_BR Bus1=DJ_573919_1816.2.3 Bus2=BP_591_22835.2.3 phases=2 Linecode=lc16 Length=1.679757 units=ft !overhead line
New Line.591_11740_BR Bus1=DJ_573921_1816.3 Bus2=DJ_573920_1816.3 phases=1 Linecode=lc1 Length=0.425609 units=ft !overhead line
New Line.591_11742_BR Bus1=DJ_568970_1816.3 Bus2=BP_591_25054.3 phases=1 Linecode=lc1 Length=0.449517 units=ft !overhead line
New Line.591_11749_UG Bus1=BP_591_20642.1.2.3 Bus2=DJ_2662992_1816.1.2.3 phases=3 Linecode=lc12 Length=530.000000 units=ft !overhead line
New Line.591_11750_UG Bus1=CP_591_9583.1.2.3 Bus2=CP_591_8232.1.2.3 phases=3 Linecode=lc8 Length=80.000000 units=ft !overhead line
New Line.591_1176449_BR Bus1=BP_591_1742545.2 Bus2=DJ_590271_1816.2 phases=1 Linecode=lc1 Length=0.499437 units=ft !overhead line
New Line.591_1176450_BR Bus1=BP_591_1742546.2 Bus2=DJ_590271_1816.2 phases=1 Linecode=lc1 Length=0.498438 units=ft !overhead line
New Line.591_1176451_BR Bus1=BP_591_1742547.2 Bus2=DJ_590278_1816.2 phases=1 Linecode=lc1 Length=0.461393 units=ft !overhead line
New Line.591_1180673_UG Bus1=CP_591_1095237.1.2.3 Bus2=CP_591_1093985.1.2.3 phases=3 Linecode=lc8 Length=389.000000 units=ft !overhead line
New Line.591_1180674_UG Bus1=BP_591_1724645.1 Bus2=BP_591_1723042.1 phases=1 Linecode=lc4 Length=179.000000 units=ft !overhead line
New Line.591_1180675_UG Bus1=BP_591_1723044.1.2.3 Bus2=BP_591_1723671.1.2.3 phases=3 Linecode=lc9 Length=625.000000 units=ft !overhead line
New Line.591_1181313_UG Bus1=CP_591_1095238.1.2.3 Bus2=CP_591_1095233.1.2.3 phases=3 Linecode=lc8 Length=625.000000 units=ft !overhead line
New Line.591_1181314_UG Bus1=CP_591_1095239.1.2.3 Bus2=BP_591_1723041.1.2.3 phases=3 Linecode=lc9 Length=116.000000 units=ft !overhead line
New Line.591_1182913_UG Bus1=BP_591_1723667.1.2.3 Bus2=BP_591_1725907.1.2.3 phases=3 Linecode=lc9 Length=1103.000000 units=ft !overhead line
New Line.591_1183233_UG Bus1=CP_591_1095234.1.2.3 Bus2=CP_591_1097474.1.2.3 phases=3 Linecode=lc8 Length=1103.000000 units=ft !overhead line
New Line.591_1183234_UG Bus1=BP_591_1723672.1 Bus2=BP_591_1725604.1 phases=1 Linecode=lc4 Length=350.000000 units=ft !overhead line
New Line.591_1183235_UG Bus1=BP_591_1725906.1.2.3 Bus2=BP_591_1725605.1.2.3 phases=3 Linecode=lc17 Length=37.000000 units=ft !overhead line
New Line.591_1190929_UG Bus1=CP_591_1106455.1.2.3 Bus2=CP_591_1097475.1.2.3 phases=3 Linecode=lc8 Length=489.000000 units=ft !overhead line
New Line.591_1190931_UG Bus1=BP_591_1725905.1.2.3 Bus2=BP_591_1747089.1.2.3 phases=3 Linecode=lc9 Length=490.000000 units=ft !overhead line
New Line.591_1190932_UG Bus1=CP_591_1106458.1.2 Bus2=BP_591_1734253.1.2 phases=2 Linecode=lc15 Length=300.000000 units=ft !overhead line
New Line.591_1190933_UG Bus1=CP_591_1106459.1.2.3 Bus2=CP_591_1106456.1.2.3 phases=3 Linecode=lc8 Length=987.000000 units=ft !overhead line
New Line.591_1190934_UG Bus1=BP_591_1735509.3 Bus2=BP_591_1734254.3 phases=1 Linecode=lc4 Length=27.000000 units=ft !overhead line
New Line.591_1191574_MC Bus1=XF_591_14355.1 Bus2=CG_591_305457.1 phases=1 Linecode=lc18 Length=0.100000 units=ft !overhead line
...
