ProjectFiles/Sumitomo/DSSfiles/LoadsC591_unbalanced.dss
! Script for LoadsC591.dss

! LOAD DEFINITIONS
New Load.591_1043938_BRa Bus1=XF_591_758929.1 Phases=1 kV=6.92820323028 Model=1 kW=6.532757 kVar=2.568925 yearly=m3loadmult
New Load.591_10734_BRb Bus1=DJ_2820276_1816.2 Phases=1 kV=6.92820323028 Model=1 kW=6.397135 kVar=2.520004 yearly=m3loadmult
New Load.591_1083944_BRc Bus1=XF_591_796035.3 Phases=1 kV=6.92820323028 Model=1 kW=6.515202 kVar=2.572120 yearly=m3loadmult
New Load.591_1083948_BRc Bus1=DJ_2469207_1816.3 Phases=1 kV=6.92820323028 Model=1 kW=13.030404 kVar=5.144240 yearly=m3loadmult
New Load.591_1086498_BRa Bus1=DJ_3361144_1816.1 Phases=1 kV=6.92820323028 Model=1 kW=6.532757 kVar=2.568925 yearly=m3loadmult
New Load.591_10959_BRb Bus1=DJ_579109_1816.2 Phases=1 kV=6.92820323028 Model=1 kW=6.397135 kVar=2.520004 yearly=m3loadmult
New Load.591_11049_BRa Bus1=DJ_590237_1816.1 Phases=1 kV=6.92820323028 Model=1 kW=6.532757 kVar=2.568925 yearly=m3loadmult
New Load.591_11092_BRa Bus1=DJ_590228_1816.1 Phases=1 kV=6.92820323028 Model=1 kW=6.532757 kVar=2.568925 yearly=m3loadmult
New Load.591_11094_BRa Bus1=DJ_590209_1816.1 Phases=1 kV=6.92820323028 Model=1 kW=6.532757 kVar=2.568925 yearly=m3loadmult
New Load.591_11226_BRa Bus1=DJ_590193_1816.1 Phases=1 kV=6.92820323028 Model=1 kW=13.065515 kVar=5.137849 yearly=m3loadmult
New Load.591_11227_BRa Bus1=DJ_595229_1816.1 Phases=1 kV=6.92820323028 Model=1 kW=13.065515 kVar=5.137849 yearly=m3loadmult
New Load.591_11484_BRb Bus1=DJ_590278_1816.2 Phases=1 kV=6.92820323028 Model=1 kW=12.794270 kVar=5.040008 yearly=m3loadmult
New Load.591_1152657_OHa Bus1=DJ_3947508_1816.1 Phases=1 kV=6.92820323028 Model=1 kW=6.532757 kVar=2.568925 yearly=m3loadmult
New Load.591_1152657_OHb Bus1=DJ_3947508_1816.2 Phases=1 kV=6.92820323028 Model=1 kW=6.397135 kVar=2.520004 yearly=m3loadmult
New Load.591_1152657_OHc Bus1=DJ_3947508_1816.3 Phases=1 kV=6.92820323028 Model=1 kW=6.515202 kVar=2.572120 yearly=m3loadmult
New Load.591_11554_BRa Bus1=DJ_2662898_1816.1 Phases=1 kV=6.92820323028 Model=1 kW=6.532757 kVar=2.568925 yearly=m3loadmult
New Load.591_1163957_BRa Bus1=XF_591_871553.1 Phases=1 kV=6.92820323028 Model=1 kW=13.065515 kVar=5.137849 yearly=m3loadmult
New Load.591_1164914_BRa Bus1=XF_591_873170.1 Phases=1 kV=6.92820323028 Model=1 kW=13.065515 kVar=5.137849 yearly=m3loadmult
New Load.591_11653_BRa Bus1=DJ_579199_1816.1 Phases=1 kV=6.92820323028 Model=1 kW=13.065515 kVar=5.137849 yearly=m3loadmult
New Load.591_11677_BRc Bus1=DJ_595187_1816.3 Phases=1 kV=6.92820323028 Model=1 kW=19.545606 kVar=7.716360 yearly=m3loadmult
New Load.591_1171041_BRc Bus1=XF_591_879602.3 Phases=1 kV=6.92820323028 Model=1 kW=13.030404 kVar=5.144240 yearly=m3loadmult
New Load.591_11713_BRa Bus1=DJ_574012_1816.1 Phases=1 kV=6.92820323028 Model=1 kW=6.532757 kVar=2.568925 yearly=m3loadmult
New Load.591_11715_BRc Bus1=DJ_579246_1816.3 Phases=1 kV=6.92820323028 Model=1 kW=13.030404 kVar=5.144240 yearly=m3loadmult
New Load.591_11716_BRc Bus1=DJ_579239_1816.3 Phases=1 kV=6.92820323028 Model=1 kW=13.030404 kVar=5.144240 yearly=m3loadmult
New Load.591_11718_BRc Bus1=DJ_568962_1816.3 Phases=1 kV=6.92820323028 Model=1 kW=6.515202 kVar=2.572120 yearly=m3loadmult
New Load.591_12001_BRb Bus1=DJ_595210_1816.2 Phases=1 kV=6.92820323028 Model=1 kW=12.794270 kVar=5.040008 yearly=m3loadmult
New Load.591_12064_BRc Bus1=DJ_574020_1816.3 Phases=1 kV=6.92820323028 Model=1 kW=6.515202 kVar=2.572120 yearly=m3loadmult
New Load.591_12065_BRc Bus1=DJ_573998_1816.3 Phases=1 kV=6.92820323028 Model=1 kW=6.515202 kVar=2.572120 yearly=m3loadmult
New Load.591_1223189_BRa Bus1=XF_591_926979.1 Phases=1 kV=6.92820323028 Model=1 kW=6.532757 kVar=2.568925 yearly=m3loadmult
New Load.591_1223189_BRb Bus1=XF_591_926979.2 Phases=1 kV=6.92820323028 Model=1 kW=6.397135 kVar=2.520004 yearly=m3loadmult
New Load.591_1223189_BRc Bus1=XF_591_926979.3 Phases=1 kV=6.92820323028 Model=1 kW=6.515202 kVar=2.572120 yearly=m3loadmult
New Load.591_12249_BRa Bus1=DJ_573953_1816.1 Phases=1 kV=6.92820323028 Model=1 kW=6.532757 kVar=2.568925 yearly=m3loadmult
New Load.591_12256_BRa Bus1=DJ_590355_1816.1 Phases=1 kV=6.92820323028 Model=1 kW=19.598272 kVar=7.706774 yearly=m3loadmult
New Load.591_12259_BRa Bus1=DJ_3699026_1816.1 Phases=1 kV=6.92820323028 Model=1 kW=19.598272 kVar=7.706774 yearly=m3loadmult
New Load.591_12261_BRa Bus1=DJ_3699021_1816.1 Phases=1 kV=6.92820323028 Model=1 kW=19.598272 kVar=7.706774 yearly=m3loadmult
New Load.591_12367_BRc Bus1=DJ_585055_1816.3 Phases=1 kV=6.92820323028 Model=1 kW=19.545606 kVar=7.716360 yearly=m3loadmult
New Load.591_12676_BRa Bus1=DJ_584985_1816.1 Phases=1 kV=6.92820323028 Model=1 kW=6.532757 kVar=2.568925 yearly=m3loadmult
New Load.591_1295814_BRa Bus1=XF_591_10108.1 Phases=1 kV=6.92820323028 Model=1 kW=3.266379 kVar=1.284462 yearly=m3loadmult
New Load.591_1295814_BRb Bus1=XF_591_10108.2 Phases=1 kV=6.92820323028 Model=1 kW=3.198567 kVar=1.260002 yearly=m3loadmult
New Load.591_13302_BRa Bus1=DJ_584952_1816.1 Phases=1 kV=6.92820323028 Model=1 kW=6.532757 kVar=2.568925 yearly=m3loadmult
New Load.591_13308_BRa Bus1=DJ_590170_1816.1 Phases=1 kV=6.92820323028 Model=1 kW=13.065515 kVar=5.137849 yearly=m3loadmult
New Load.591_13311_BRb Bus1=DJ_590227_1816.2 Phases=1 kV=6.92820323028 Model=1 kW=19.191405 kVar=7.560012 yearly=m3loadmult
New Load.591_13513_BRc Bus1=XF_591_928241.3 Phases=1 kV=6.92820323028 Model=1 kW=6.515202 kVar=2.572120 yearly=m3loadmult
New Load.591_13515_BRa Bus1=DJ_584936_1816.1 Phases=1 kV=6.92820323028 Model=1 kW=6.532757 kVar=2.568925 yearly=m3loadmult
New Load.591_14030_BRa Bus1=DJ_590082_1816.1 Phases=1 kV=6.92820323028 Model=1 kW=6.532757 kVar=2.568925 yearly=m3loadmult
New Load.591_14131_BRa Bus1=XF_591_13998.1 Phases=1 kV=6.92820323028 Model=1 kW=13.065515 kVar=5.137849 yearly=m3loadmult
New Load.591_14131_BRb Bus1=XF_591_13998.2 Phases=1 kV=6.92820323028 Model=1 kW=12.794270 kVar=5.040008 yearly=m3loadmult
New Load.591_14131_BRc Bus1=XF_591_13998.3 Phases=1 kV=6.92820323028 Model=1 kW=13.030404 kVar=5.144240 yearly=m3loadmult
New Load.591_14135_BRb Bus1=DJ_568994_1816.2 Phases=1 kV=6.92820323028 Model=1 kW=6.397135 kVar=2.520004 yearly=m3loadmult
New Load.591_14138_BRc Bus1=DJ_569004_1816.3 Phases=1 kV=6.92820323028 Model=1 kW=13.030404 kVar=5.144240 yearly=m3loadmult
New Load.591_14385_BRc Bus1=DJ_595293_1816.3 Phases=1 kV=6.92820323028 Model=1 kW=6.515202 kVar=2.572120 yearly=m3loadmult
New Load.591_14529_BRc Bus1=DJ_590266_1816.3 Phases=1 kV=6.92820323028 Model=1 kW=13.030404 kVar=5.144240 yearly=m3loadmult
New Load.591_14531_BRb Bus1=DJ_590174_1816.2 Phases=1 kV=6.92820323028 Model=1 kW=6.397135 kVar=2.520004 yearly=m3loadmult
New Load.591_14534_BRc Bus1=DJ_590199_1816.3 Phases=1 kV=6.92820323028 Model=1 kW=6.515202 kVar=2.572120 yearly=m3loadmult
New Load.591_14535_BRb Bus1=DJ_590176_1816.2 Phases=1 kV=6.92820323028 Model=1 kW=12.794270 kVar=5.040008 yearly=m3loadmult
New Load.591_14554_BRa Bus1=DJ_590092_1816.1 Phases=1 kV=6.92820323028 Model=1 kW=6.532757 kVar=2.568925 yearly=m3loadmult
New Load.591_14716_BRa Bus1=DJ_584851_1816.1 Phases=1 kV=6.92820323028 Model=1 kW=6.532757 kVar=2.568925 yearly=m3loadmult
New Load.591_14733_BRa Bus1=DJ_590091_1816.1 Phases=1 kV=6.92820323028 Model=1 kW=6.532757 kVar=2.568925 yearly=m3loadmult
New Load.591_14876_BRa Bus1=XF_591_9948.1 Phases=1 kV=6.92820323028 Model=1 kW=13.065515 kVar=5.137849 yearly=m3loadmult
New Load.591_14876_BRb Bus1=XF_591_9948.2 Phases=1 kV=6.92820323028 Model=1 kW=12.794270 kVar=5.040008 yearly=m3loadmult
New Load.591_14876_BRc Bus1=XF_591_9948.3 Phases=1 kV=6.92820323028 Model=1 kW=13.030404 kVar=5.144240 yearly=m3loadmult
New Load.591_14880_BRb Bus1=DJ_2662891_1816.2 Phases=1 kV=6.92820323028 Model=1 kW=6.397135 kVar=2.520004 yearly=m3loadmult
New Load.591_14882_BRb Bus1=DJ_2662909_1816.2 Phases=1 kV=6.92820323028 Model=1 kW=12.794270 kVar=5.040008 yearly=m3loadmult
New Load.591_14884_BRa Bus1=DJ_2662913_1816.1 Phases=1 kV=6.92820323028 Model=1 kW=6.532757 kVar=2.568925 yearly=m3loadmult
New Load.591_15065_BRb Bus1=DJ_573891_1816.2 Phases=1 kV=6.92820323028 Model=1 kW=6.397135 kVar=2.520004 yearly=m3loadmult
New Load.591_15068_BRa Bus1=DJ_579209_1816.1 Phases=1 kV=6.92820323028 Model=1 kW=6.532757 kVar=2.568925 yearly=m3loadmult
New Load.591_15209_BRa Bus1=DJ_590229_1816.1 Phases=1 kV=6.92820323028 Model=1 kW=6.532757 kVar=2.568925 yearly=m3loadmult
New Load.591_15215_BRa Bus1=DJ_590265_1816.1 Phases=1 kV=6.92820323028 Model=1 kW=6.532757 kVar=2.568925 yearly=m3loadmult
New Load.591_15572_BRb Bus1=DJ_568986_1816.2 Phases=1 kV=6.92820323028 Model=1 kW=12.794270 kVar=5.040008 yearly=m3loadmult
New Load.591_15573_BRb Bus1=DJ_568989_1816.2 Phases=1 kV=6.92820323028 Model=1 kW=6.397135 kVar=2.520004 yearly=m3loadmult
New Load.591_15595_BRc Bus1=DJ_569002_1816.3 Phases=1 kV=6.92820323028 Model=1 kW=13.030404 kVar=5.144240 yearly=m3loadmult
New Load.591_15597_BRb Bus1=DJ_573897_1816.2 Phases=1 kV=6.92820323028 Model=1 kW=6.397135 kVar=2.520004 yearly=m3loadmult
New Load.591_15601_BRa Bus1=DJ_573934_1816.1 Phases=1 kV=6.92820323028 Model=1 kW=13.065515 kVar=5.137849 yearly=m3loadmult
New Load.591_15603_BRa Bus1=DJ_573922_1816.1 Phases=1 kV=6.92820323028 Model=1 kW=6.532757 kVar=2.568925 yearly=m3loadmult
New Load.591_15709_BRa Bus1=DJ_573946_1816.1 Phases=1 kV=6.92820323028 Model=1 kW=6.532757 kVar=2.568925 yearly=m3loadmult
New Load.591_15715_BRb Bus1=DJ_573944_1816.2 Phases=1 kV=6.92820323028 Model=1 kW=6.397135 kVar=2.520004 yearly=m3loadmult
New Load.591_15771_BRa Bus1=DJ_568988_1816.1 Phases=1 kV=6.92820323028 Model=1 kW=13.065515 kVar=5.137849 yearly=m3loadmult
New Load.591_15779_BRc Bus1=DJ_574021_1816.3 Phases=1 kV=6.92820323028 Model=1 kW=6.515202 kVar=2.572120 yearly=m3loadmult
New Load.591_15781_BRa Bus1=DJ_3716439_1816.1 Phases=1 kV=6.92820323028 Model=1 kW=19.598272 kVar=7.706774 yearly=m3loadmult
New Load.591_15787_BRa Bus1=DJ_574022_1816.1 Phases=1 kV=6.92820323028 Model=1 kW=6.532757 kVar=2.568925 yearly=m3loadmult
New Load.591_15942_MCa Bus1=XF_591_16697.1 Phases=1 kV=6.92820323028 Model=1 kW=19.598272 kVar=7.706774 yearly=m3loadmult
New Load.591_15942_MCb Bus1=XF_591_16697.2 Phases=1 kV=6.92820323028 Model=1 kW=19.191405 kVar=7.560012 yearly=m3loadmult
New Load.591_15942_MCc Bus1=XF_591_16697.3 Phases=1 kV=6.92820323028 Model=1 kW=19.545606 kVar=7.716360 yearly=m3loadmult
New Load.591_16497_BRc Bus1=DJ_584958_1816.3 Phases=1 kV=6.92820323028 Model=1 kW=13.030404 kVar=5.144240 yearly=m3loadmult
New Load.591_16502_BRa Bus1=DJ_585003_1816.1 Phases=1 kV=6.92820323028 Model=1 kW=13.065515 kVar=5.137849 yearly=m3loadmult
New Load.591_16503_BRa Bus1=DJ_585019_1816.1 Phases=1 kV=6.92820323028 Model=1 kW=6.532757 kVar=2.568925 yearly=m3loadmult
New Load.591_16516_BRa Bus1=DJ_590233_1816.1 Phases=1 kV=6.92820323028 Model=1 kW=19.598272 kVar=7.706774 yearly=m3loadmult
New Load.591_16678_BRc Bus1=DJ_604030_1816.3 Phases=1 kV=6.92820323028 Model=1 kW=6.515202 kVar=2.572120 yearly=m3loadmult
New Load.591_16845_BRc Bus1=DJ_584913_1816.3 Phases=1 kV=6.92820323028 Model=1 kW=13.030404 kVar=5.144240 yearly=m3loadmult
New Load.591_16901_BRb Bus1=DJ_584978_1816.2 Phases=1 kV=6.92820323028 Model=1 kW=19.191405 kVar=7.560012 yearly=m3loadmult
New Load.591_16980_BRa Bus1=DJ_584912_1816.1 Phases=1 kV=6.92820323028 Model=1 kW=6.532757 kVar=2.568925 yearly=m3loadmult
New Load.591_17253_BRa Bus1=DJ_599529_1816.1 Phases=1 kV=6.92820323028 Model=1 kW=6.532757 kVar=2.568925 yearly=m3loadmult
New Load.591_17255_BRa Bus1=XF_591_14085.1 Phases=1 kV=6.92820323028 Model=1 kW=6.532757 kVar=2.568925 yearly=m3loadmult
New Load.591_17255_BRb Bus1=XF_591_14085.2 Phases=1 kV=6.92820323028 Model=1 kW=6.397135 kVar=2.520004 yearly=m3loadmult
New Load.591_17255_BRc Bus1=XF_591_14085.3 Phases=1 kV=6.92820323028 Model=1 kW=6.515202 kVar=2.572120 yearly=m3loadmult
New Load.591_17256_BRb Bus1=DJ_590271_1816.2 Phases=1 kV=6.92820323028 Model=1 kW=19.191405 kVar=7.560012 yearly=m3loadmult
New Load.591_17259_BRa Bus1=XF_591_9951.1 Phases=1 kV=6.92820323028 Model=1 kW=26.131029 kVar=10.275698 yearly=m3loadmult
New Load.591_17259_BRb Bus1=XF_591_9951.2 Phases=1 kV=6.92820323028 Model=1 kW=25.588540 kVar=10.080016 yearly=m3loadmult
New Load.591_17259_BRc Bus1=XF_591_9951.3 Phases=1 kV=6.92820323028 Model=1 kW=26.060808 kVar=10.288480 yearly=m3loadmult
New Load.591_17429_BRa Bus1=DJ_595316_1816.1 Phases=1 kV=6.92820323028 Model=1 kW=13.065515 kVar=5.137849 yearly=m3loadmult
New Load.591_17432_BRa Bus1=DJ_595305_1816.1 Phases=1 kV=6.92820323028 Model=1 kW=13.065515 kVar=5.137849 yearly=m3loadmult
New Load.591_17445_BRa Bus1=XF_591_12626.1 Phases=1 kV=6.92820323028 Model=1 kW=13.065515 kVar=5.137849 yearly=m3loadmult
New Load.591_17445_BRb Bus1=XF_591_12626.2 Phases=1 kV=6.92820323028 Model=1 kW=12.794270 kVar=5.040008 yearly=m3loadmult
New Load.591_17445_BRc Bus1=XF_591_12626.3 Phases=1 kV=6.92820323028 Model=1 kW=13.030404 kVar=5.144240 yearly=m3loadmult
New Load.591_17451_BRa Bus1=DJ_590242_1816.1 Phases=1 kV=6.92820323028 Model=1 kW=13.065515 kVar=5.137849 yearly=m3loadmult
New Load.591_17624_OHb Bus1=XF_591_10212.2 Phases=1 kV=6.92820323028 Model=1 kW=1.919140 kVar=0.756001 yearly=m3loadmult
New Load.591_17624_OHc Bus1=XF_591_10212.3 Phases=1 kV=6.92820323028 Model=1 kW=1.954561 kVar=0.771636 yearly=m3loadmult
New Load.591_17626_OHb Bus1=DJ_585107_1816.2 Phases=1 kV=6.92820323028 Model=1 kW=6.397135 kVar=2.520004 yearly=m3loadmult
New Load.591_17626_OHc Bus1=DJ_585107_1816.3 Phases=1 kV=6.92820323028 Model=1 kW=6.515202 kVar=2.572120 yearly=m3loadmult
New Load.591_17627_OHb Bus1=XF_591_9933.2 Phases=1 kV=6.92820323028 Model=1 kW=3.198567 kVar=1.260002 yearly=m3loadmult
New Load.591_17627_OHc Bus1=XF_591_9933.3 Phases=1 kV=6.92820323028 Model=1 kW=3.257601 kVar=1.286060 yearly=m3loadmult
New Load.591_17718_BRb Bus1=DJ_590138_1816.2 Phases=1 kV=6.92820323028 Model=1 kW=12.794270 kVar=5.040008 yearly=m3loadmult
New Load.591_17720_BRa Bus1=DJ_2662905_1816.1 Phases=1 kV=6.92820323028 Model=1 kW=6.532757 kVar=2.568925 yearly=m3loadmult
New Load.591_17721_BRb Bus1=DJ_2662901_1816.2 Phases=1 kV=6.92820323028 Model=1 kW=12.794270 kVar=5.040008 yearly=m3loadmult
New Load.591_17724_BRb Bus1=DJ_590151_1816.2 Phases=1 kV=6.92820323028 Model=1 kW=6.397135 kVar=2.520004 yearly=m3loadmult
New Load.591_17753_BRc Bus1=DJ_590246_1816.3 Phases=1 kV=6.92820323028 Model=1 kW=6.515202 kVar=2.572120 yearly=m3loadmult
New Load.591_17784_BRa Bus1=DJ_595277_1816.1 Phases=1 kV=6.92820323028 Model=1 kW=6.532757 kVar=2.568925 yearly=m3loadmult
New Load.591_17831_OHb Bus1=XF_591_11386.2 Phases=1 kV=6.92820323028 Model=1 kW=1.279427 kVar=0.504001 yearly=m3loadmult
New Load.591_17831_OHc Bus1=XF_591_11386.3 Phases=1 kV=6.92820323028 Model=1 kW=1.303040 kVar=0.514424 yearly=m3loadmult
New Load.591_17866_OHb Bus1=DJ_590099_1816.2 Phases=1 kV=6.92820323028 Model=1 kW=3.198567 kVar=1.260002 yearly=m3loadmult
New Load.591_17866_OHc Bus1=DJ_590099_1816.3 Phases=1 kV=6.92820323028 Model=1 kW=3.257601 kVar=1.286060 yearly=m3loadmult
New Load.591_17925_BRb Bus1=DJ_568987_1816.2 Phases=1 kV=6.92820323028 Model=1 kW=12.794270 kVar=5.040008 yearly=m3loadmult
New Load.591_17929_BRb Bus1=DJ_573914_1816.2 Phases=1 kV=6.92820323028 Model=1 kW=6.397135 kVar=2.520004 yearly=m3loadmult
New Load.591_1797297_BRa Bus1=DJ_3800881_1816.1 Phases=1 kV=6.92820323028 Model=1 kW=65.327573 kVar=25.689246 yearly=m3loadmult
New Load.591_1797297_BRb Bus1=DJ_3800881_1816.2 Phases=1 kV=6.92820323028 Model=1 kW=63.971350 kVar=25.200040 yearly=m3loadmult
New Load.591_1797297_BRc Bus1=DJ_3800881_1816.3 Phases=1 kV=6.92820323028 Model=1 kW=65.152020 kVar=25.721200 yearly=m3loadmult
New Load.591_1797301_BRa Bus1=XF_591_1504657.1 Phases=1 kV=6.92820323028 Model=1 kW=13.065515 kVar=5.137849 yearly=m3loadmult
New Load.591_17981_OHb Bus1=DJ_599540_1816.2 Phases=1 kV=6.92820323028 Model=1 kW=3.198567 kVar=1.260002 yearly=m3loadmult
New Load.591_17981_OHc Bus1=DJ_599540_1816.3 Phases=1 kV=6.92820323028 Model=1 kW=3.257601 kVar=1.286060 yearly=m3loadmult
New Load.591_17988_OHa Bus1=DJ_616658_1816.1 Phases=1 kV=6.92820323028 Model=1 kW=3.266379 kVar=1.284462 yearly=m3loadmult
New Load.591_17988_OHb Bus1=DJ_616658_1816.2 Phases=1 kV=6.92820323028 Model=1 kW=3.198567 kVar=1.260002 yearly=m3loadmult
New Load.591_18036_BRc Bus1=DJ_2662894_1816.3 Phases=1 kV=6.92820323028 Model=1 kW=6.515202 kVar=2.572120 yearly=m3loadmult
New Load.591_18038_BRb Bus1=DJ_590132_1816.2 Phases=1 kV=6.92820323028 Model=1 kW=19.191405 kVar=7.560012 yearly=m3loadmult
New Load.591_18041_BRb Bus1=DJ_590152_1816.2 Phases=1 kV=6.92820323028 Model=1 kW=6.397135 kVar=2.520004 yearly=m3loadmult
New Load.591_18042_BRa Bus1=DJ_2662896_1816.1 Phases=1 kV=6.92820323028 Model=1 kW=13.065515 kVar=5.137849 yearly=m3loadmult
New Load.591_18045_BRc Bus1=DJ_595202_1816.3 Phases=1 kV=6.92820323028 Model=1 kW=19.545606 kVar=7.716360 yearly=m3loadmult
New Load.591_18048_BRc Bus1=DJ_595177_1816.3 Phases=1 kV=6.92820323028 Model=1 kW=19.545606 kVar=7.716360 yearly=m3loadmult
New Load.591_18067_BRa Bus1=DJ_603998_1816.1 Phases=1 kV=6.92820323028 Model=1 kW=6.532757 kVar=2.568925 yearly=m3loadmult
New Load.591_18206_OHb Bus1=DJ_579112_1816.2 Phases=1 kV=6.92820323028 Model=1 kW=3.198567 kVar=1.260002 yearly=m3loadmult
New Load.591_18206_OHc Bus1=DJ_579112_1816.3 Phases=1 kV=6.92820323028 Model=1 kW=3.257601 kVar=1.286060 yearly=m3loadmult
New Load.591_18208_MCa Bus1=XF_591_12630.1 Phases=1 kV=6.92820323028 Model=1 kW=3.266379 kVar=1.284462 yearly=m3loadmult
New Load.591_18208_MCb Bus1=XF_591_12630.2 Phases=1 kV=6.92820323028 Model=1 kW=3.198567 kVar=1.260002 yearly=m3loadmult
New Load.591_18215_MCb Bus1=XF_591_9485.2 Phases=1 kV=6.92820323028 Model=1 kW=6.397135 kVar=2.520004 yearly=m3loadmult
New Load.591_18215_MCc Bus1=XF_591_9485.3 Phases=1 kV=6.92820323028 Model=1 kW=6.515202 kVar=2.572120 yearly=m3loadmult
New Load.591_18218_MCb Bus1=XF_591_14375.2 Phases=1 kV=6.92820323028 Model=1 kW=1.919140 kVar=0.756001 yearly=m3loadmult
New Load.591_18218_MCc Bus1=XF_591_14375.3 Phases=1 kV=6.92820323028 Model=1 kW=1.954561 kVar=0.771636 yearly=m3loadmult
New Load.591_18245_BRa Bus1=DJ_595348_1816.1 Phases=1 kV=6.92820323028 Model=1 kW=6.532757 kVar=2.568925 yearly=m3loadmult
New Load.591_18290_BRc Bus1=DJ_590220_1816.3 Phases=1 kV=6.92820323028 Model=1 kW=13.030404 kVar=5.144240 yearly=m3loadmult
New Load.591_1829346_BRa Bus1=XF_591_1541809.1 Phases=1 kV=6.92820323028 Model=1 kW=26.131029 kVar=10.275698 yearly=m3loadmult
New Load.591_1829349_BRa Bus1=XF_591_1541810.1 Phases=1 kV=6.92820323028 Model=1 kW=6.532757 kVar=2.568925 yearly=m3loadmult
New Load.591_18302_BRb Bus1=DJ_573900_1816.2 Phases=1 kV=6.92820323028 Model=1 kW=6.397135 kVar=2.520004 yearly=m3loadmult
New Load.591_18522_OHb Bus1=DJ_585084_1816.2 Phases=1 kV=6.92820323028 Model=1 kW=3.198567 kVar=1.260002 yearly=m3loadmult
New Load.591_18522_OHc Bus1=DJ_585084_1816.3 Phases=1 kV=6.92820323028 Model=1 kW=3.257601 kVar=1.286060 yearly=m3loadmult
New Load.591_18523_OHb Bus1=XF_591_10297.2 Phases=1 kV=6.92820323028 Model=1 kW=3.198567 kVar=1.260002 yearly=m3loadmult
New Load.591_18523_OHc Bus1=XF_591_10297.3 Phases=1 kV=6.92820323028 Model=1 kW=3.257601 kVar=1.286060 yearly=m3loadmult
New Load.591_18524_OHb Bus1=DJ_585115_1816.2 Phases=1 kV=6.92820323028 Model=1 kW=1.279427 kVar=0.504001 yearly=m3loadmult
New Load.591_18524_OHc Bus1=DJ_585115_1816.3 Phases=1 kV=6.92820323028 Model=1 kW=1.303040 kVar=0.514424 yearly=m3loadmult
New Load.591_18676_OHb Bus1=XF_591_9483.2 Phases=1 kV=6.92820323028 Model=1 kW=3.198567 kVar=1.260002 yearly=m3loadmult
New Load.591_18676_OHc Bus1=XF_591_9483.3 Phases=1 kV=6.92820323028 Model=1 kW=3.257601 kVar=1.286060 yearly=m3loadmult
New Load.591_18677_OHb Bus1=DJ_608071_1816.2 Phases=1 kV=6.92820323028 Model=1 kW=3.198567 kVar=1.260002 yearly=m3loadmult
New Load.591_18677_OHc Bus1=DJ_608071_1816.3 Phases=1 kV=6.92820323028 Model=1 kW=3.257601 kVar=1.286060 yearly=m3loadmult
New Load.591_18679_BRb Bus1=DJ_590212_1816.2 Phases=1 kV=6.92820323028 Model=1 kW=12.794270 kVar=5.040008 yearly=m3loadmult
New Load.591_18682_BRb Bus1=DJ_590186_1816.2 Phases=1 kV=6.92820323028 Model=1 kW=12.794270 kVar=5.040008 yearly=m3loadmult
New Load.591_18822_BRa Bus1=DJ_590219_1816.1 Phases=1 kV=6.92820323028 Model=1 kW=13.065515 kVar=5.137849 yearly=m3loadmult
New Load.591_18825_BRa Bus1=DJ_595358_1816.1 Phases=1 kV=6.92820323028 Model=1 kW=6.532757 kVar=2.568925 yearly=m3loadmult
New Load.591_18826_BRa Bus1=XF_591_12936.1 Phases=1 kV=6.92820323028 Model=1 kW=65.327573 kVar=25.689246 yearly=m3loadmult
New Load.591_18826_BRb Bus1=XF_591_12936.2 Phases=1 kV=6.92820323028 Model=1 kW=63.971350 kVar=25.200040 yearly=m3loadmult
New Load.591_18826_BRc Bus1=XF_591_12936.3 Phases=1 kV=6.92820323028 Model=1 kW=65.152020 kVar=25.721200 yearly=m3loadmult
New Load.591_19149_OHb Bus1=XF_591_9881.2 Phases=1 kV=6.92820323028 Model=1 kW=3.198567 kVar=1.260002 yearly=m3loadmult
New Load.591_19149_OHc Bus1=XF_591_9881.3 Phases=1 kV=6.92820323028 Model=1 kW=3.257601 kVar=1.286060 yearly=m3loadmult
New Load.591_19153_OHb Bus1=XF_591_13125.2 Phases=1 kV=6.92820323028 Model=1 kW=4.810646 kVar=1.895043 yearly=m3loadmult
New Load.591_19153_OHc Bus1=XF_591_13125.3 Phases=1 kV=6.92820323028 Model=1 kW=4.899432 kVar=1.934234 yearly=m3loadmult
New Load.591_19272_BRc Bus1=DJ_2662917_1816.3 Phases=1 kV=6.92820323028 Model=1 kW=13.030404 kVar=5.144240 yearly=m3loadmult
New Load.591_19374_OHa Bus1=DJ_584853_1816.1 Phases=1 kV=6.92820323028 Model=1 kW=6.532757 kVar=2.568925 yearly=m3loadmult
New Load.591_19374_OHb Bus1=DJ_584853_1816.2 Phases=1 kV=6.92820323028 Model=1 kW=6.397135 kVar=2.520004 yearly=m3loadmult
New Load.591_19400_MCb Bus1=CP_591_11424.2 Phases=1 kV=6.92820323028 Model=1 kW=3.198567 kVar=1.260002 yearly=m3loadmult
New Load.591_19400_MCc Bus1=CP_591_11424.3 Phases=1 kV=6.92820323028 Model=1 kW=3.257601 kVar=1.286060 yearly=m3loadmult
New Load.591_19567_BRa Bus1=DJ_573959_1816.1 Phases=1 kV=6.92820323028 Model=1 kW=6.532757 kVar=2.568925 yearly=m3loadmult
New Load.591_19570_BRa Bus1=XF_591_16620.1 Phases=1 kV=6.92820323028 Model=1 kW=13.065515 kVar=5.137849 yearly=m3loadmult
New Load.591_19570_BRb Bus1=XF_591_16620.2 Phases=1 kV=6.92820323028 Model=1 kW=12.794270 kVar=5.040008 yearly=m3loadmult
New Load.591_19570_BRc Bus1=XF_591_16620.3 Phases=1 kV=6.92820323028 Model=1 kW=13.030404 kVar=5.144240 yearly=m3loadmult
New Load.591_19585_BRa Bus1=DJ_595330_1816.1 Phases=1 kV=6.92820323028 Model=1 kW=13.065515 kVar=5.137849 yearly=m3loadmult
New Load.591_19586_BRa Bus1=XF_591_12189.1 Phases=1 kV=6.92820323028 Model=1 kW=6.532757 kVar=2.568925 yearly=m3loadmult
New Load.591_19612_OHa Bus1=XF_591_13563.1 Phases=1 kV=6.92820323028 Model=1 kW=3.266379 kVar=1.284462 yearly=m3loadmult
New Load.591_19612_OHb Bus1=XF_591_13563.2 Phases=1 kV=6.92820323028 Model=1 kW=3.198567 kVar=1.260002 yearly=m3loadmult
New Load.591_19617_OHb Bus1=XF_591_13838.2 Phases=1 kV=6.92820323028 Model=1 kW=3.198567 kVar=1.260002 yearly=m3loadmult
New Load.591_19617_OHc Bus1=XF_591_13838.3 Phases=1 kV=6.92820323028 Model=1 kW=3.257601 kVar=1.286060 yearly=m3loadmult
New Load.591_19664_OHb Bus1=DJ_584861_1816.2 Phases=1 kV=6.92820323028 Model=1 kW=3.198567 kVar=1.260002 yearly=m3loadmult
New Load.591_19664_OHc Bus1=DJ_584861_1816.3 Phases=1 kV=6.92820323028 Model=1 kW=3.257601 kVar=1.286060 yearly=m3loadmult
New Load.591_19668_OHb Bus1=XF_591_12160.2 Phases=1 kV=6.92820323028 Model=1 kW=1.919140 kVar=0.756001 yearly=m3loadmult
New Load.591_19668_OHc Bus1=XF_591_12160.3 Phases=1 kV=6.92820323028 Model=1 kW=1.954561 kVar=0.771636 yearly=m3loadmult
New Load.591_19816_MCa Bus1=XF_591_9324.1 Phases=1 kV=6.92820323028 Model=1 kW=3.266379 kVar=1.284462 yearly=m3loadmult
New Load.591_19816_MCb Bus1=XF_591_9324.2 Phases=1 kV=6.92820323028 Model=1 kW=3.198567 kVar=1.260002 yearly=m3loadmult
New Load.591_19850_OHb Bus1=XF_591_12245.2 Phases=1 kV=6.92820323028 Model=1 kW=3.198567 kVar=1.260002 yearly=m3loadmult
New Load.591_19850_OHc Bus1=XF_591_12245.3 Phases=1 kV=6.92820323028 Model=1 kW=3.257601 kVar=1.286060 yearly=m3loadmult
New Load.591_2000329_MCa Bus1=XF_591_31206.1 Phases=1 kV=6.92820323028 Model=1 kW=3.266379 kVar=1.284462 yearly=m3loadmult
New Load.591_2000329_MCc Bus1=XF_591_31206.3 Phases=1 kV=6.92820323028 Model=1 kW=3.257601 kVar=1.286060 yearly=m3loadmult
New Load.591_20008_OHb Bus1=DJ_590095_1816.2 Phases=1 kV=6.92820323028 Model=1 kW=6.397135 kVar=2.520004 yearly=m3loadmult
New Load.591_20008_OHc Bus1=DJ_590095_1816.3 Phases=1 kV=6.92820323028 Model=1 kW=6.515202 kVar=2.572120 yearly=m3loadmult
New Load.591_20009_OHb Bus1=XF_591_9440.2 Phases=1 kV=6.92820323028 Model=1 kW=3.198567 kVar=1.260002 yearly=m3loadmult
...

! Large customers
New Load.591_2936115_MCa Bus1=PM_591_36817.1 Phases=1 kV=6.92820323028 Model=1 kW=33.1 kVar=16.031 yearly=m3loadmult
New Load.591_2936115_MCb Bus1=PM_591_36817.2 Phases=1 kV=6.92820323028 Model=1 kW=33.1 kVar=16.031 yearly=m3loadmult
New Load.591_2936115_MCc Bus1=PM_591_36817.3 Phases=1 kV=6.92820323028 Model=1 kW=33.1 kVar=16.031 yearly=m3loadmult

New Load.591_21960_MCa Bus1=PM_591_65.1 Phases=1 kV=6.92820323028 Model=1 kW=42.1 kVar=20.38 yearly=m3loadmult
New Load.591_21960_MCb Bus1=PM_591_65.2 Phases=1 kV=6.92820323028 Model=1 kW=42.1 kVar=20.38 yearly=m3loadmult
New Load.591_21960_MCc Bus1=PM_591_65.3 Phases=1 kV=6.92820323028 Model=1 kW=42.1 kVar=20.38 yearly=m3loadmult

New Load.591_42078_MCa Bus1=PM_591_71.1 Phases=1 kV=6.92820323028 Model=1 kW=118.5 kVar=57.37 yearly=m3loadmult
New Load.591_42078_MCb Bus1=PM_591_71.2 Phases=1 kV=6.92820323028 Model=1 kW=118.5 kVar=57.37 yearly=m3loadmult
New Load.591_42078_MCc Bus1=PM_591_71.3 Phases=1 kV=6.92820323028 Model=1 kW=118.5 kVar=57.37 yearly=m3loadmult